8
CIS-DCNE.LOG	Energy: -165027.9981389
N          0.00000        2.18486       -1.07125
C          0.00000        1.48871       -0.12531
N          0.00000       -2.18486       -1.07125
C          0.00000       -1.48871       -0.12531
C          0.00000        0.67636        1.04297
H          0.00000        1.20260        1.99277
C          0.00000       -0.67636        1.04297
H          0.00000       -1.20260        1.99277
