11
DC-FURAN.LOG	Energy: -260019.6189526
N          0.00000        2.27561       -1.97292
C          0.00000        1.57786       -1.02936
N          0.00000       -2.27561       -1.97292
C          0.00000       -1.57786       -1.02936
C          0.00000        1.11965        1.41898
C          0.00000        0.73066        0.10498
C          0.00000       -0.73066        0.10498
C          0.00000       -1.11965        1.41898
O          0.00000        0.00000        2.23321
H          0.00000        2.07621        1.91000
H          0.00000       -2.07621        1.91000
