11
DC-THIOPHEN.LOG	Energy: -462691.6087446
N          0.00000       -2.37177        2.16650
C          0.00000       -1.39265        1.51930
N          0.00000       -2.37177       -2.16650
C          0.00000       -1.39265       -1.51930
C          0.00000        1.05394        1.26432
C         -0.00000       -0.20851        0.72953
C         -0.00000       -0.20851       -0.72953
C          0.00000        1.05394       -1.26432
S          0.00000        2.31898        0.00000
H          0.00000        1.33395        2.30540
H          0.00000        1.33395       -2.30540
