14
DC_2-METHYL-PROPENE.LOG	Energy: -214364.3819771
N         -1.73464       -2.21628        0.00000
C         -1.11855       -1.21669        0.00000
N         -1.73463        2.21629        0.00000
C         -1.11855        1.21669        0.00000
C         -0.35946        0.00000       -0.00000
C          1.00894       -0.00000       -0.00000
C          1.80263       -1.27698        0.00000
H          2.45797       -1.31380        0.88014
H          1.17349       -2.16877       -0.00003
H          2.45802       -1.31377       -0.88010
C          1.80264        1.27697        0.00000
H          1.17350        2.16877        0.00000
H          2.45800        1.31377        0.88012
H          2.45800        1.31377       -0.88012
