13
DC_PENTADIENE.LOG	Energy: -237498.4584914
N          0.00000       -2.21210       -2.03683
C          0.00000       -1.55153       -1.06627
N          0.00000        2.21210       -2.03683
C          0.00000        1.55153       -1.06627
C          0.00000        0.00000        2.32344
H          0.87755        0.00000        2.98842
H         -0.87755        0.00000        2.98842
C          0.00000        1.18279        1.39247
H          0.00000        2.21489        1.71448
C          0.00000        0.74643        0.10458
C          0.00000       -1.18279        1.39247
H          0.00000       -2.21489        1.71448
C          0.00000       -0.74643        0.10458
