13
DCCPENTENE.LOG	Energy: -237498.4584914
N          0.00000       -2.03683        2.21210
C          0.00000       -1.06627        1.55153
N          0.00000       -2.03683       -2.21210
C          0.00000       -1.06627       -1.55153
C          0.00000        0.10458        0.74643
C          0.00000        0.10458       -0.74643
C          0.00000        1.39247       -1.18279
C          0.00000        1.39247        1.18279
H          0.00000        1.71448       -2.21489
H          0.00000        1.71448        2.21489
C         -0.00000        2.32344        0.00000
H         -0.87755        2.98842        0.00000
H          0.87754        2.98842        0.00000
