9
DCCPropene.LOG	Energy: -188885.0583117
N          0.00000        2.88585       -0.96903
C          0.00000        1.85771       -0.39708
N          0.00000       -2.88585       -0.96903
C          0.00000       -1.85771       -0.39708
C          0.00000        0.65948        0.30710
C          0.00000       -0.65948        0.30710
C          0.00000        0.00000        1.68489
H          0.91849        0.00000        2.26837
H         -0.91849        0.00000        2.26837
