14
DIMETHYL-DCNE.LOG	Energy: -214362.4230319
N          2.03870       -1.83215        0.00000
C          1.39827       -0.84752        0.00000
N         -2.03870       -1.83215        0.00000
C         -1.39827       -0.84752        0.00000
C          0.68241        0.39571        0.00000
C         -0.68241        0.39571        0.00000
C          1.56546        1.62353        0.00000
H          2.21745        1.62194        0.88164
H          2.21745        1.62194       -0.88164
H          0.99305        2.55086       -0.00000
C         -1.56546        1.62353        0.00000
H         -2.21745        1.62194        0.88164
H         -0.99305        2.55086        0.00000
H         -2.21745        1.62194       -0.88164
