16
TCNB.LOG	Energy: -377143.4725978
N          0.00000        3.44664       -2.05720
C          0.00000        2.44679       -1.44359
N          0.00000       -3.44664       -2.05720
C          0.00000       -2.44679       -1.44359
N          0.00000        3.44664        2.05720
C          0.00000        2.44679        1.44359
C          0.00000        1.21997        0.71018
C          0.00000        1.21997       -0.71018
C          0.00000        0.00000       -1.40163
C          0.00000       -1.21997       -0.71018
C          0.00000       -1.21997        0.71018
C          0.00000        0.00000        1.40163
H          0.00000        0.00000       -2.48441
H          0.00000        0.00000        2.48441
C          0.00000       -2.44679        1.44359
N          0.00000       -3.44664        2.05720
