10
TCNE.LOG	Energy: -280732.5262681
N          0.00000        2.21803       -2.04760
C          0.00000        1.21984       -1.43062
N          0.00000       -2.21803       -2.04760
C          0.00000       -1.21984       -1.43062
C          0.00000        0.00000        0.68861
C          0.00000        0.00000       -0.68861
C          0.00000        1.21984        1.43062
N          0.00000        2.21803        2.04760
C          0.00000       -1.21984        1.43062
N          0.00000       -2.21803        2.04760
